*SPEF "ieee 1481-1999"
*DESIGN "iiitb_bc"
*DATE "11:11:11 Fri 11 11, 1111"
*VENDOR "OpenRCX"
*PROGRAM "Parallel Extraction"
*VERSION "1.0"
*DESIGN_FLOW "NAME_SCOPE LOCAL" "PIN_CAP NONE"
*DIVIDER /
*DELIMITER :
*BUS_DELIMITER []
*T_UNIT 1 NS
*C_UNIT 1 PF
*R_UNIT 1 OHM
*L_UNIT 1 HENRY

*NAME_MAP
*1 Clk
*2 Count[0]
*3 Count[1]
*4 Count[2]
*5 Count[3]
*6 UpOrDown
*9 reset
*10 _00_
*11 _01_
*12 _02_
*13 _03_
*14 _04_
*15 _05_
*16 _06_
*17 _07_
*18 _08_
*19 _09_
*20 _10_
*21 _11_
*22 _12_
*23 _13_
*24 _14_
*25 _15_
*26 _16_
*27 _17_
*28 net1
*29 net2
*30 net3
*31 net4
*32 net5
*33 net6
*34 net7
*35 FILLER_0_21
*36 FILLER_0_27
*37 FILLER_0_29
*38 FILLER_0_3
*39 FILLER_0_37
*40 FILLER_0_44
*41 FILLER_0_48
*42 FILLER_0_52
*43 FILLER_0_57
*44 FILLER_0_63
*45 FILLER_0_71
*46 FILLER_0_9
*47 FILLER_10_15
*48 FILLER_10_27
*49 FILLER_10_29
*50 FILLER_10_3
*51 FILLER_10_41
*52 FILLER_10_53
*53 FILLER_10_65
*54 FILLER_10_71
*55 FILLER_11_21
*56 FILLER_11_27
*57 FILLER_11_29
*58 FILLER_11_3
*59 FILLER_11_41
*60 FILLER_11_53
*61 FILLER_11_57
*62 FILLER_11_62
*63 FILLER_11_66
*64 FILLER_11_70
*65 FILLER_11_9
*66 FILLER_1_15
*67 FILLER_1_27
*68 FILLER_1_3
*69 FILLER_1_54
*70 FILLER_1_57
*71 FILLER_1_65
*72 FILLER_1_70
*73 FILLER_2_15
*74 FILLER_2_27
*75 FILLER_2_29
*76 FILLER_2_3
*77 FILLER_2_37
*78 FILLER_2_42
*79 FILLER_2_70
*80 FILLER_3_15
*81 FILLER_3_27
*82 FILLER_3_3
*83 FILLER_3_32
*84 FILLER_3_42
*85 FILLER_3_53
*86 FILLER_3_57
*87 FILLER_3_62
*88 FILLER_3_69
*89 FILLER_4_15
*90 FILLER_4_27
*91 FILLER_4_29
*92 FILLER_4_3
*93 FILLER_4_44
*94 FILLER_4_48
*95 FILLER_4_54
*96 FILLER_4_63
*97 FILLER_4_71
*98 FILLER_5_15
*99 FILLER_5_27
*100 FILLER_5_3
*101 FILLER_5_35
*102 FILLER_5_41
*103 FILLER_5_49
*104 FILLER_5_54
*105 FILLER_5_57
*106 FILLER_5_64
*107 FILLER_6_15
*108 FILLER_6_27
*109 FILLER_6_29
*110 FILLER_6_3
*111 FILLER_6_37
*112 FILLER_6_58
*113 FILLER_6_65
*114 FILLER_6_71
*115 FILLER_7_21
*116 FILLER_7_29
*117 FILLER_7_3
*118 FILLER_7_37
*119 FILLER_7_41
*120 FILLER_7_45
*121 FILLER_7_52
*122 FILLER_7_57
*123 FILLER_7_69
*124 FILLER_7_9
*125 FILLER_8_15
*126 FILLER_8_27
*127 FILLER_8_29
*128 FILLER_8_3
*129 FILLER_8_57
*130 FILLER_8_69
*131 FILLER_9_15
*132 FILLER_9_27
*133 FILLER_9_3
*134 FILLER_9_39
*135 FILLER_9_51
*136 FILLER_9_55
*137 FILLER_9_57
*138 FILLER_9_69
*139 PHY_0
*140 PHY_1
*141 PHY_10
*142 PHY_11
*143 PHY_12
*144 PHY_13
*145 PHY_14
*146 PHY_15
*147 PHY_16
*148 PHY_17
*149 PHY_18
*150 PHY_19
*151 PHY_2
*152 PHY_20
*153 PHY_21
*154 PHY_22
*155 PHY_23
*156 PHY_3
*157 PHY_4
*158 PHY_5
*159 PHY_6
*160 PHY_7
*161 PHY_8
*162 PHY_9
*163 TAP_24
*164 TAP_25
*165 TAP_26
*166 TAP_27
*167 TAP_28
*168 TAP_29
*169 TAP_30
*170 TAP_31
*171 TAP_32
*172 TAP_33
*173 TAP_34
*174 TAP_35
*175 TAP_36
*176 TAP_37
*177 _18_
*178 _19_
*179 _20_
*180 _21_
*181 _22_
*182 _23_
*183 _24_
*184 _25_
*185 _26_
*186 _27_
*187 _28_
*188 _29_
*189 _30_
*190 _31_
*191 _32_
*192 _33_
*193 _34_
*194 _35_
*195 _36_
*196 _37_
*197 _38_
*198 _39_
*199 input1
*200 input2
*201 input3
*202 output4
*203 output5
*204 output6
*205 output7

*PORTS
Clk I
Count[0] O
Count[1] O
Count[2] O
Count[3] O
UpOrDown I
reset I

*D_NET *1 0.000495465
*CONN
*P Clk I
*I *199:A I *D sky130_fd_sc_hd__clkbuf_1
*CAP
1 Clk 0.000247733
2 *199:A 0.000247733
*RES
1 Clk *199:A 19.1056 
*END

*D_NET *2 0.000973408
*CONN
*P Count[0] O
*I *202:X O *D sky130_fd_sc_hd__buf_2
*CAP
1 Count[0] 0.000486704
2 *202:X 0.000486704
3 Count[0] *191:A 0
*RES
1 *202:X Count[0] 24.5143 
*END

*D_NET *3 0.00049504
*CONN
*P Count[1] O
*I *203:X O *D sky130_fd_sc_hd__buf_2
*CAP
1 Count[1] 0.00024752
2 *203:X 0.00024752
*RES
1 *203:X Count[1] 18.3391 
*END

*D_NET *4 0.00132764
*CONN
*P Count[2] O
*I *204:X O *D sky130_fd_sc_hd__buf_2
*CAP
1 Count[2] 0.000663818
2 *204:X 0.000663818
*RES
1 *204:X Count[2] 28.2107 
*END

*D_NET *5 0.00182512
*CONN
*P Count[3] O
*I *205:X O *D sky130_fd_sc_hd__buf_2
*CAP
1 Count[3] 0.000912558
2 *205:X 0.000912558
*RES
1 *205:X Count[3] 34.6214 
*END

*D_NET *6 0.00101328
*CONN
*P UpOrDown I
*I *200:A I *D sky130_fd_sc_hd__clkbuf_1
*CAP
1 UpOrDown 0.000506642
2 *200:A 0.000506642
*RES
1 UpOrDown *200:A 26.0679 
*END

*D_NET *9 0.000811232
*CONN
*P reset I
*I *201:A I *D sky130_fd_sc_hd__clkbuf_2
*CAP
1 reset 0.000405616
2 *201:A 0.000405616
3 *201:A *191:A 0
4 *201:A *30:7 0
*RES
1 reset *201:A 25.0476 
*END

*D_NET *10 0.000353415
*CONN
*I *195:D I *D sky130_fd_sc_hd__dfrtp_2
*I *177:Y O *D sky130_fd_sc_hd__clkinv_2
*CAP
1 *195:D 0.000176708
2 *177:Y 0.000176708
3 *195:D *177:A 0
4 *195:D *204:A 0
*RES
1 *177:Y *195:D 31.4214 
*END

*D_NET *11 0.000195941
*CONN
*I *196:D I *D sky130_fd_sc_hd__dfrtp_1
*I *183:X O *D sky130_fd_sc_hd__clkbuf_1
*CAP
1 *196:D 9.79704e-05
2 *183:X 9.79704e-05
*RES
1 *183:X *196:D 29.7786 
*END

*D_NET *12 0.000240766
*CONN
*I *197:D I *D sky130_fd_sc_hd__dfrtp_1
*I *187:Y O *D sky130_fd_sc_hd__xnor2_1
*CAP
1 *197:D 0.000120383
2 *187:Y 0.000120383
3 *197:D *32:46 0
*RES
1 *187:Y *197:D 30.1893 
*END

*D_NET *13 0.000287354
*CONN
*I *198:D I *D sky130_fd_sc_hd__dfrtp_1
*I *190:Y O *D sky130_fd_sc_hd__xnor2_1
*CAP
1 *198:D 0.000143677
2 *190:Y 0.000143677
3 *198:D *190:B 0
*RES
1 *190:Y *198:D 30.7071 
*END

*D_NET *14 0.000243396
*CONN
*I *195:RESET_B I *D sky130_fd_sc_hd__dfrtp_2
*I *191:Y O *D sky130_fd_sc_hd__inv_2
*CAP
1 *195:RESET_B 0.000121698
2 *191:Y 0.000121698
3 *195:RESET_B *31:7 0
*RES
1 *191:Y *195:RESET_B 21.0232 
*END

*D_NET *15 0.000360219
*CONN
*I *196:RESET_B I *D sky130_fd_sc_hd__dfrtp_1
*I *192:Y O *D sky130_fd_sc_hd__inv_2
*CAP
1 *196:RESET_B 0.000180109
2 *192:Y 0.000180109
3 *196:RESET_B *32:7 0
*RES
1 *192:Y *196:RESET_B 13.0589 
*END

*D_NET *16 0.000334092
*CONN
*I *197:RESET_B I *D sky130_fd_sc_hd__dfrtp_1
*I *193:Y O *D sky130_fd_sc_hd__inv_2
*CAP
1 *197:RESET_B 0.000167046
2 *193:Y 0.000167046
3 *197:RESET_B *193:A 0
4 *197:RESET_B *33:7 0
*RES
1 *193:Y *197:RESET_B 21.9696 
*END

*D_NET *17 0.000169238
*CONN
*I *198:RESET_B I *D sky130_fd_sc_hd__dfrtp_1
*I *194:Y O *D sky130_fd_sc_hd__inv_2
*CAP
1 *198:RESET_B 8.46191e-05
2 *194:Y 8.46191e-05
*RES
1 *194:Y *198:RESET_B 20.175 
*END

*D_NET *18 0.00081381
*CONN
*I *180:A1 I *D sky130_fd_sc_hd__a21oi_1
*I *181:B I *D sky130_fd_sc_hd__and3_1
*I *178:Y O *D sky130_fd_sc_hd__nand2_1
*CAP
1 *180:A1 0.000108471
2 *181:B 0
3 *178:Y 0.000298435
4 *18:8 0.000406905
5 *180:A1 *182:A 0
6 *180:A1 *29:13 0
7 *18:8 *32:46 0
*RES
1 *178:Y *18:8 20.175 
2 *18:8 *181:B 13.8 
3 *18:8 *180:A1 16.2821 
*END

*D_NET *19 0.000563254
*CONN
*I *180:A2 I *D sky130_fd_sc_hd__a21oi_1
*I *181:C I *D sky130_fd_sc_hd__and3_1
*I *179:X O *D sky130_fd_sc_hd__or2_1
*CAP
1 *180:A2 0.000141732
2 *181:C 3.85032e-05
3 *179:X 0.000101392
4 *19:5 0.000281627
5 *181:C *31:33 0
6 *19:5 *31:33 0
*RES
1 *179:X *19:5 11.4786 
2 *19:5 *181:C 10.1036 
3 *19:5 *180:A2 21.4607 
*END

*D_NET *20 0.000996019
*CONN
*I *182:A I *D sky130_fd_sc_hd__or2_1
*I *187:A I *D sky130_fd_sc_hd__xnor2_1
*I *180:Y O *D sky130_fd_sc_hd__a21oi_1
*CAP
1 *182:A 0.000257543
2 *187:A 0.000240466
3 *180:Y 0
4 *20:4 0.00049801
5 *182:A *183:A 0
6 *182:A *29:13 0
7 *187:A *32:46 0
8 *180:A1 *182:A 0
*RES
1 *180:Y *20:4 9.3 
2 *20:4 *187:A 23.6214 
3 *20:4 *182:A 14.675 
*END

*D_NET *21 0.000419359
*CONN
*I *182:B I *D sky130_fd_sc_hd__or2_1
*I *181:X O *D sky130_fd_sc_hd__and3_1
*CAP
1 *182:B 0.000209679
2 *181:X 0.000209679
3 *182:B *31:33 0
*RES
1 *181:X *182:B 32.1357 
*END

*D_NET *22 0.0011569
*CONN
*I *183:A I *D sky130_fd_sc_hd__clkbuf_1
*I *182:X O *D sky130_fd_sc_hd__or2_1
*CAP
1 *183:A 0.000578449
2 *182:X 0.000578449
3 *183:A *29:13 0
4 *182:A *183:A 0
*RES
1 *182:X *183:A 40.0286 
*END

*D_NET *23 0.000758555
*CONN
*I *189:A1 I *D sky130_fd_sc_hd__mux2_1
*I *186:A I *D sky130_fd_sc_hd__nand2_1
*I *184:Y O *D sky130_fd_sc_hd__nand3_1
*CAP
1 *189:A1 4.27871e-05
2 *186:A 0.000224174
3 *184:Y 0.000112316
4 *23:6 0.000379277
5 *186:A *187:B 0
*RES
1 *184:Y *23:6 16.3536 
2 *23:6 *186:A 18.6036 
3 *23:6 *189:A1 14.8357 
*END

*D_NET *24 0.000357652
*CONN
*I *186:B I *D sky130_fd_sc_hd__nand2_1
*I *185:X O *D sky130_fd_sc_hd__a21o_1
*CAP
1 *186:B 0.000178826
2 *185:X 0.000178826
3 *186:B *187:B 0
*RES
1 *185:X *186:B 22.3321 
*END

*D_NET *25 0.000759796
*CONN
*I *187:B I *D sky130_fd_sc_hd__xnor2_1
*I *186:Y O *D sky130_fd_sc_hd__nand2_1
*CAP
1 *187:B 0.000379898
2 *186:Y 0.000379898
3 *187:B *185:A1 0
4 *187:B *32:46 0
5 *186:A *187:B 0
6 *186:B *187:B 0
*RES
1 *186:Y *187:B 26.5286 
*END

*D_NET *26 0.000222683
*CONN
*I *189:A0 I *D sky130_fd_sc_hd__mux2_1
*I *188:X O *D sky130_fd_sc_hd__or3_1
*CAP
1 *189:A0 0.000111341
2 *188:X 0.000111341
3 *189:A0 *32:26 0
*RES
1 *188:X *189:A0 30.0821 
*END

*D_NET *27 0.000837658
*CONN
*I *190:B I *D sky130_fd_sc_hd__xnor2_1
*I *189:X O *D sky130_fd_sc_hd__mux2_1
*CAP
1 *190:B 0.000418829
2 *189:X 0.000418829
3 *190:B *28:30 0
4 *198:D *190:B 0
*RES
1 *189:X *190:B 36.8143 
*END

*D_NET *28 0.00460626
*CONN
*I *196:CLK I *D sky130_fd_sc_hd__dfrtp_1
*I *197:CLK I *D sky130_fd_sc_hd__dfrtp_1
*I *195:CLK I *D sky130_fd_sc_hd__dfrtp_2
*I *198:CLK I *D sky130_fd_sc_hd__dfrtp_1
*I *199:X O *D sky130_fd_sc_hd__clkbuf_1
*CAP
1 *196:CLK 0
2 *197:CLK 0.000124066
3 *195:CLK 0.000415459
4 *198:CLK 6.07494e-05
5 *199:X 0.000958511
6 *28:30 0.0011047
7 *28:24 0.000744343
8 *28:11 0.00119843
9 *195:CLK *31:7 0
10 *197:CLK *33:7 0
11 *198:CLK *34:7 0
12 *28:11 *34:7 0
13 *28:30 *32:7 0
14 *190:B *28:30 0
*RES
1 *199:X *28:11 38.9964 
2 *28:11 *198:CLK 10.5679 
3 *28:11 *28:24 13.0714 
4 *28:24 *28:30 17.0536 
5 *28:30 *195:CLK 22.6393 
6 *28:30 *197:CLK 16.3893 
7 *28:24 *196:CLK 9.3 
*END

*D_NET *29 0.00224882
*CONN
*I *180:B1 I *D sky130_fd_sc_hd__a21oi_1
*I *189:S I *D sky130_fd_sc_hd__mux2_1
*I *181:A I *D sky130_fd_sc_hd__and3_1
*I *200:X O *D sky130_fd_sc_hd__clkbuf_1
*CAP
1 *180:B1 0
2 *189:S 0.000143745
3 *181:A 3.21887e-05
4 *200:X 0.000814721
5 *29:18 0.000309688
6 *29:13 0.000948476
7 *189:S *31:33 0
8 *180:A1 *29:13 0
9 *182:A *29:13 0
10 *183:A *29:13 0
*RES
1 *200:X *29:13 36.4607 
2 *29:13 *29:18 7.58929 
3 *29:18 *181:A 14.5321 
4 *29:18 *189:S 16.8 
5 *29:13 *180:B1 9.3 
*END

*D_NET *30 0.00338061
*CONN
*I *194:A I *D sky130_fd_sc_hd__inv_2
*I *192:A I *D sky130_fd_sc_hd__inv_2
*I *193:A I *D sky130_fd_sc_hd__inv_2
*I *191:A I *D sky130_fd_sc_hd__inv_2
*I *201:X O *D sky130_fd_sc_hd__clkbuf_2
*CAP
1 *194:A 0.000466226
2 *192:A 8.4707e-05
3 *193:A 4.53482e-05
4 *191:A 0.000519871
5 *201:X 4.53482e-05
6 *30:32 0.000860845
7 *30:23 0.000574151
8 *30:7 0.00078411
9 *191:A *202:A 0
10 Count[0] *191:A 0
11 *197:RESET_B *193:A 0
12 *201:A *191:A 0
13 *201:A *30:7 0
*RES
1 *201:X *30:7 14.7464 
2 *30:7 *191:A 24.9071 
3 *30:7 *30:23 5.03571 
4 *30:23 *193:A 14.7464 
5 *30:23 *30:32 7.10714 
6 *30:32 *192:A 15.5679 
7 *30:32 *194:A 23.7643 
*END

*D_NET *31 0.00387236
*CONN
*I *185:A1 I *D sky130_fd_sc_hd__a21o_1
*I *188:A I *D sky130_fd_sc_hd__or3_1
*I *178:A I *D sky130_fd_sc_hd__nand2_1
*I *202:A I *D sky130_fd_sc_hd__buf_2
*I *179:A I *D sky130_fd_sc_hd__or2_1
*I *184:A I *D sky130_fd_sc_hd__nand3_1
*I *177:A I *D sky130_fd_sc_hd__clkinv_2
*I *195:Q O *D sky130_fd_sc_hd__dfrtp_2
*CAP
1 *185:A1 5.97844e-05
2 *188:A 0.000148623
3 *178:A 0
4 *202:A 0.000365272
5 *179:A 0
6 *184:A 0
7 *177:A 0.000217516
8 *195:Q 0.000281501
9 *31:42 0.000486891
10 *31:33 0.00058708
11 *31:26 0.000688882
12 *31:24 0.000263947
13 *31:17 0.000201607
14 *31:7 0.000571259
15 *177:A *204:A 0
16 *31:17 *204:A 0
17 *31:26 *188:C 0
18 *181:C *31:33 0
19 *182:B *31:33 0
20 *187:B *185:A1 0
21 *189:S *31:33 0
22 *191:A *202:A 0
23 *195:CLK *31:7 0
24 *195:D *177:A 0
25 *195:RESET_B *31:7 0
26 *19:5 *31:33 0
*RES
1 *195:Q *31:7 19.675 
2 *31:7 *177:A 18.6214 
3 *31:7 *31:17 1.64286 
4 *31:17 *184:A 13.8 
5 *31:17 *31:24 3.00893 
6 *31:24 *31:26 1.79464 
7 *31:26 *31:33 14.2143 
8 *31:33 *179:A 9.3 
9 *31:33 *31:42 7.28571 
10 *31:42 *202:A 22.05 
11 *31:42 *178:A 13.8 
12 *31:26 *188:A 17.1929 
13 *31:24 *185:A1 15.1482 
*END

*D_NET *32 0.00474331
*CONN
*I *203:A I *D sky130_fd_sc_hd__buf_2
*I *179:B I *D sky130_fd_sc_hd__or2_1
*I *178:B I *D sky130_fd_sc_hd__nand2_1
*I *185:A2 I *D sky130_fd_sc_hd__a21o_1
*I *184:B I *D sky130_fd_sc_hd__nand3_1
*I *188:B I *D sky130_fd_sc_hd__or3_1
*I *196:Q O *D sky130_fd_sc_hd__dfrtp_1
*CAP
1 *203:A 0.000639063
2 *179:B 0.000134275
3 *178:B 2.0535e-05
4 *185:A2 0
5 *184:B 0.000178219
6 *188:B 0
7 *196:Q 0.000497974
8 *32:46 0.000535564
9 *32:39 0.000380754
10 *32:26 0.000496781
11 *32:15 0.000520835
12 *32:7 0.00133931
13 *187:A *32:46 0
14 *187:B *32:46 0
15 *189:A0 *32:26 0
16 *196:RESET_B *32:7 0
17 *197:D *32:46 0
18 *18:8 *32:46 0
19 *28:30 *32:7 0
*RES
1 *196:Q *32:7 24.1929 
2 *32:7 *32:15 9.07143 
3 *32:15 *188:B 9.3 
4 *32:15 *32:26 11.4821 
5 *32:26 *184:B 17.7286 
6 *32:26 *32:39 4.5 
7 *32:39 *185:A2 9.3 
8 *32:39 *32:46 7.94643 
9 *32:46 *178:B 9.72857 
10 *32:46 *179:B 21.3 
11 *32:7 *203:A 27.3714 
*END

*D_NET *33 0.00370437
*CONN
*I *184:C I *D sky130_fd_sc_hd__nand3_1
*I *188:C I *D sky130_fd_sc_hd__or3_1
*I *185:B1 I *D sky130_fd_sc_hd__a21o_1
*I *204:A I *D sky130_fd_sc_hd__buf_2
*I *197:Q O *D sky130_fd_sc_hd__dfrtp_1
*CAP
1 *184:C 0
2 *188:C 0.000245633
3 *185:B1 2.56688e-05
4 *204:A 0.000782566
5 *197:Q 0.00057605
6 *33:21 0.00041036
7 *33:11 0.00100483
8 *33:7 0.00065926
9 *177:A *204:A 0
10 *195:D *204:A 0
11 *197:CLK *33:7 0
12 *197:RESET_B *33:7 0
13 *31:17 *204:A 0
14 *31:26 *188:C 0
*RES
1 *197:Q *33:7 21.3536 
2 *33:7 *33:11 6.26786 
3 *33:11 *204:A 30.5143 
4 *33:11 *33:21 3.16071 
5 *33:21 *185:B1 14.3357 
6 *33:21 *188:C 19.4429 
7 *33:7 *184:C 9.3 
*END

*D_NET *34 0.00279607
*CONN
*I *205:A I *D sky130_fd_sc_hd__buf_2
*I *190:A I *D sky130_fd_sc_hd__xnor2_1
*I *198:Q O *D sky130_fd_sc_hd__dfrtp_1
*CAP
1 *205:A 0.000804389
2 *190:A 0.000112356
3 *198:Q 0.00048129
4 *34:7 0.00139803
5 *198:CLK *34:7 0
6 *28:11 *34:7 0
*RES
1 *198:Q *34:7 23.7821 
2 *34:7 *190:A 16.3536 
3 *34:7 *205:A 31.1929 
*END
