*SPEF "ieee 1481-1999"
*DESIGN "iiitb_3bit_rc"
*DATE "11:11:11 Fri 11 11, 1111"
*VENDOR "OpenRCX"
*PROGRAM "Parallel Extraction"
*VERSION "1.0"
*DESIGN_FLOW "NAME_SCOPE LOCAL" "PIN_CAP NONE"
*DIVIDER /
*DELIMITER :
*BUS_DELIMITER []
*T_UNIT 1 NS
*C_UNIT 1 PF
*R_UNIT 1 OHM
*L_UNIT 1 HENRY

*NAME_MAP
*3 clk
*4 count[0]
*5 count[1]
*6 count[2]
*7 ori
*8 _0_
*9 _1_
*10 _2_
*11 clknet_0_clk
*12 clknet_1_0__leaf_clk
*13 clknet_1_1__leaf_clk
*14 net1
*15 net2
*16 net3
*17 net4
*18 net5
*19 FILLER_0_21
*20 FILLER_0_27
*21 FILLER_0_29
*22 FILLER_0_3
*23 FILLER_0_41
*24 FILLER_0_53
*25 FILLER_0_57
*26 FILLER_0_69
*27 FILLER_0_81
*28 FILLER_0_85
*29 FILLER_0_9
*30 FILLER_0_97
*31 FILLER_10_15
*32 FILLER_10_27
*33 FILLER_10_29
*34 FILLER_10_3
*35 FILLER_10_41
*36 FILLER_10_53
*37 FILLER_10_79
*38 FILLER_10_83
*39 FILLER_10_85
*40 FILLER_10_97
*41 FILLER_11_101
*42 FILLER_11_15
*43 FILLER_11_27
*44 FILLER_11_3
*45 FILLER_11_39
*46 FILLER_11_51
*47 FILLER_11_55
*48 FILLER_11_57
*49 FILLER_11_69
*50 FILLER_11_81
*51 FILLER_11_93
*52 FILLER_12_15
*53 FILLER_12_27
*54 FILLER_12_29
*55 FILLER_12_3
*56 FILLER_12_41
*57 FILLER_12_53
*58 FILLER_12_65
*59 FILLER_12_77
*60 FILLER_12_83
*61 FILLER_12_85
*62 FILLER_12_97
*63 FILLER_13_15
*64 FILLER_13_27
*65 FILLER_13_29
*66 FILLER_13_3
*67 FILLER_13_41
*68 FILLER_13_53
*69 FILLER_13_57
*70 FILLER_13_65
*71 FILLER_13_70
*72 FILLER_13_82
*73 FILLER_13_85
*74 FILLER_13_97
*75 FILLER_1_101
*76 FILLER_1_15
*77 FILLER_1_27
*78 FILLER_1_3
*79 FILLER_1_39
*80 FILLER_1_51
*81 FILLER_1_55
*82 FILLER_1_57
*83 FILLER_1_69
*84 FILLER_1_81
*85 FILLER_1_93
*86 FILLER_2_15
*87 FILLER_2_27
*88 FILLER_2_29
*89 FILLER_2_3
*90 FILLER_2_41
*91 FILLER_2_53
*92 FILLER_2_65
*93 FILLER_2_77
*94 FILLER_2_83
*95 FILLER_2_85
*96 FILLER_2_97
*97 FILLER_3_101
*98 FILLER_3_15
*99 FILLER_3_27
*100 FILLER_3_3
*101 FILLER_3_39
*102 FILLER_3_51
*103 FILLER_3_55
*104 FILLER_3_57
*105 FILLER_3_69
*106 FILLER_3_81
*107 FILLER_3_93
*108 FILLER_4_15
*109 FILLER_4_27
*110 FILLER_4_29
*111 FILLER_4_3
*112 FILLER_4_41
*113 FILLER_4_53
*114 FILLER_4_65
*115 FILLER_4_77
*116 FILLER_4_83
*117 FILLER_4_85
*118 FILLER_4_97
*119 FILLER_5_101
*120 FILLER_5_15
*121 FILLER_5_3
*122 FILLER_5_36
*123 FILLER_5_48
*124 FILLER_5_57
*125 FILLER_5_69
*126 FILLER_5_93
*127 FILLER_6_15
*128 FILLER_6_27
*129 FILLER_6_29
*130 FILLER_6_3
*131 FILLER_6_41
*132 FILLER_6_53
*133 FILLER_6_68
*134 FILLER_6_80
*135 FILLER_6_85
*136 FILLER_6_97
*137 FILLER_7_15
*138 FILLER_7_27
*139 FILLER_7_3
*140 FILLER_7_39
*141 FILLER_7_51
*142 FILLER_7_55
*143 FILLER_7_57
*144 FILLER_7_79
*145 FILLER_7_91
*146 FILLER_8_101
*147 FILLER_8_15
*148 FILLER_8_27
*149 FILLER_8_29
*150 FILLER_8_3
*151 FILLER_8_41
*152 FILLER_8_68
*153 FILLER_8_75
*154 FILLER_8_82
*155 FILLER_8_85
*156 FILLER_9_15
*157 FILLER_9_27
*158 FILLER_9_3
*159 FILLER_9_39
*160 FILLER_9_51
*161 FILLER_9_55
*162 FILLER_9_57
*163 FILLER_9_83
*164 FILLER_9_95
*165 PHY_0
*166 PHY_1
*167 PHY_10
*168 PHY_11
*169 PHY_12
*170 PHY_13
*171 PHY_14
*172 PHY_15
*173 PHY_16
*174 PHY_17
*175 PHY_18
*176 PHY_19
*177 PHY_2
*178 PHY_20
*179 PHY_21
*180 PHY_22
*181 PHY_23
*182 PHY_24
*183 PHY_25
*184 PHY_26
*185 PHY_27
*186 PHY_3
*187 PHY_4
*188 PHY_5
*189 PHY_6
*190 PHY_7
*191 PHY_8
*192 PHY_9
*193 TAP_28
*194 TAP_29
*195 TAP_30
*196 TAP_31
*197 TAP_32
*198 TAP_33
*199 TAP_34
*200 TAP_35
*201 TAP_36
*202 TAP_37
*203 TAP_38
*204 TAP_39
*205 TAP_40
*206 TAP_41
*207 TAP_42
*208 TAP_43
*209 TAP_44
*210 TAP_45
*211 TAP_46
*212 TAP_47
*213 TAP_48
*214 TAP_49
*215 TAP_50
*216 TAP_51
*217 _3_
*218 _4_
*219 _5_
*220 _6_
*221 _7_
*222 _8_
*223 clkbuf_0_clk
*224 clkbuf_1_0__f_clk
*225 clkbuf_1_1__f_clk
*226 hold1
*227 input1
*228 output2
*229 output3
*230 output4

*PORTS
clk I
count[0] O
count[1] O
count[2] O
ori I

*D_NET *3 0.00359648
*CONN
*P clk I
*I *223:A I *D sky130_fd_sc_hd__clkbuf_16
*CAP
1 clk 0.00179824
2 *223:A 0
3 *3:16 0.00179824
*RES
1 clk *3:16 45.6921 
2 *3:16 *223:A 9.3 
*END

*D_NET *4 0.00132764
*CONN
*P count[0] O
*I *228:X O *D sky130_fd_sc_hd__buf_2
*CAP
1 count[0] 0.000663818
2 *228:X 0.000663818
*RES
1 *228:X count[0] 28.2107 
*END

*D_NET *5 0.00057514
*CONN
*P count[1] O
*I *229:X O *D sky130_fd_sc_hd__buf_2
*CAP
1 count[1] 0.00028757
2 *229:X 0.00028757
*RES
1 *229:X count[1] 19.2498 
*END

*D_NET *6 0.000906159
*CONN
*P count[2] O
*I *230:X O *D sky130_fd_sc_hd__buf_2
*CAP
1 count[2] 0.000453079
2 *230:X 0.000453079
*RES
1 *230:X count[2] 24.8536 
*END

*D_NET *7 0.000712021
*CONN
*P ori I
*I *227:A I *D sky130_fd_sc_hd__dlymetal6s2s_1
*CAP
1 ori 0.000356011
2 *227:A 0.000356011
*RES
1 ori *227:A 21.8357 
*END

*D_NET *8 0.000288823
*CONN
*I *220:RESET_B I *D sky130_fd_sc_hd__dfrtp_1
*I *217:Y O *D sky130_fd_sc_hd__inv_2
*CAP
1 *220:RESET_B 0.000144411
2 *217:Y 0.000144411
3 *220:RESET_B *217:A 0
*RES
1 *217:Y *220:RESET_B 21.4964 
*END

*D_NET *9 0.000515061
*CONN
*I *221:RESET_B I *D sky130_fd_sc_hd__dfrtp_1
*I *218:Y O *D sky130_fd_sc_hd__inv_2
*CAP
1 *221:RESET_B 0.00025753
2 *218:Y 0.00025753
3 *221:RESET_B *222:SET_B 0
*RES
1 *218:Y *221:RESET_B 24.0321 
*END

*D_NET *10 0.000714448
*CONN
*I *222:SET_B I *D sky130_fd_sc_hd__dfstp_1
*I *219:Y O *D sky130_fd_sc_hd__inv_2
*CAP
1 *222:SET_B 0.000357224
2 *219:Y 0.000357224
3 *222:SET_B *218:A 0
4 *222:SET_B *17:8 0
5 *221:RESET_B *222:SET_B 0
*RES
1 *219:Y *222:SET_B 16.7554 
*END

*D_NET *11 0.00243571
*CONN
*I *225:A I *D sky130_fd_sc_hd__clkbuf_16
*I *224:A I *D sky130_fd_sc_hd__clkbuf_16
*I *223:X O *D sky130_fd_sc_hd__clkbuf_16
*CAP
1 *225:A 0
2 *224:A 0.000753807
3 *223:X 0.000464049
4 *11:10 0.00121786
5 *224:A *12:8 0
*RES
1 *223:X *11:10 28.6929 
2 *11:10 *224:A 25.0321 
3 *11:10 *225:A 9.3 
*END

*D_NET *12 0.00253028
*CONN
*I *221:CLK I *D sky130_fd_sc_hd__dfrtp_1
*I *222:CLK I *D sky130_fd_sc_hd__dfstp_1
*I *224:X O *D sky130_fd_sc_hd__clkbuf_16
*CAP
1 *221:CLK 0.000461387
2 *222:CLK 0
3 *224:X 0.000803753
4 *12:8 0.00126514
5 *224:A *12:8 0
*RES
1 *224:X *12:8 31.1036 
2 *12:8 *222:CLK 13.8 
3 *12:8 *221:CLK 23.8357 
*END

*D_NET *13 0.000724314
*CONN
*I *220:CLK I *D sky130_fd_sc_hd__dfrtp_1
*I *225:X O *D sky130_fd_sc_hd__clkbuf_16
*CAP
1 *220:CLK 0.000362157
2 *225:X 0.000362157
3 *220:CLK *220:D 0
*RES
1 *225:X *220:CLK 35.4929 
*END

*D_NET *14 0.00326463
*CONN
*I *219:A I *D sky130_fd_sc_hd__inv_2
*I *218:A I *D sky130_fd_sc_hd__inv_2
*I *217:A I *D sky130_fd_sc_hd__inv_2
*I *227:X O *D sky130_fd_sc_hd__dlymetal6s2s_1
*CAP
1 *219:A 0
2 *218:A 0.000143745
3 *217:A 0.000458616
4 *227:X 0.00063343
5 *14:18 0.000540268
6 *14:6 0.00148857
7 *220:RESET_B *217:A 0
8 *222:SET_B *218:A 0
*RES
1 *227:X *14:6 28.1929 
2 *14:6 *217:A 23.3714 
3 *14:6 *14:18 13.3036 
4 *14:18 *218:A 12.3 
5 *14:18 *219:A 9.3 
*END

*D_NET *15 0.00381461
*CONN
*I *222:D I *D sky130_fd_sc_hd__dfstp_1
*I *228:A I *D sky130_fd_sc_hd__buf_2
*I *220:Q O *D sky130_fd_sc_hd__dfrtp_1
*CAP
1 *222:D 0.000164766
2 *228:A 0.00155943
3 *220:Q 0.000183104
4 *15:7 0.0019073
*RES
1 *220:Q *15:7 17.6214 
2 *15:7 *228:A 47.6929 
3 *15:7 *222:D 17.4964 
*END

*D_NET *16 0.00128583
*CONN
*I *226:A I *D sky130_fd_sc_hd__dlygate4sd3_1
*I *229:A I *D sky130_fd_sc_hd__buf_2
*I *221:Q O *D sky130_fd_sc_hd__dfrtp_1
*CAP
1 *226:A 6.50276e-05
2 *229:A 0.000112336
3 *221:Q 0.000465551
4 *16:8 0.000642914
*RES
1 *221:Q *16:8 23.675 
2 *16:8 *229:A 16.3536 
3 *16:8 *226:A 15.1571 
*END

*D_NET *17 0.00161298
*CONN
*I *230:A I *D sky130_fd_sc_hd__buf_2
*I *221:D I *D sky130_fd_sc_hd__dfrtp_1
*I *222:Q O *D sky130_fd_sc_hd__dfstp_1
*CAP
1 *230:A 0.00038835
2 *221:D 0.000143745
3 *222:Q 0.000274393
4 *17:8 0.000806488
5 *222:SET_B *17:8 0
*RES
1 *222:Q *17:8 19.9339 
2 *17:8 *221:D 16.8 
3 *17:8 *230:A 22.5679 
*END

*D_NET *18 0.000815649
*CONN
*I *220:D I *D sky130_fd_sc_hd__dfrtp_1
*I *226:X O *D sky130_fd_sc_hd__dlygate4sd3_1
*CAP
1 *220:D 0.000407824
2 *226:X 0.000407824
3 *220:CLK *220:D 0
*RES
1 *226:X *220:D 36.4214 
*END
